
 ANSYS Multiphysics                                


 *------------------------------------------------------------------*
 |                                                                  |
 |   W E L C O M E   T O   T H E   A N S Y S (R)  P R O G R A M     |
 |                                                                  |
 *------------------------------------------------------------------*




 ***************************************************************
 *            ANSYS Release 16.0     LEGAL NOTICES             *
 ***************************************************************
 *                                                             *
 * Copyright 2014 SAS IP, Inc.  All rights reserved.           *
 * Unauthorized use, distribution or duplication is            *
 * prohibited.                                                 *
 *                                                             *
 * Ansys is a registered trademark of ANSYS, Inc. or its       *
 * subsidiaries in the United States or other countries.       *
 * See the ANSYS, Inc. online documentation or the ANSYS, Inc. *
 * documentation CD or online help for the complete Legal      *
 * Notice.                                                     *
 *                                                             *
 ***************************************************************
 *                                                             *
 * THIS ANSYS SOFTWARE PRODUCT AND PROGRAM DOCUMENTATION       *
 * INCLUDE TRADE SECRETS AND CONFIDENTIAL AND PROPRIETARY      *
 * PRODUCTS OF ANSYS, INC., ITS SUBSIDIARIES, OR LICENSORS.    *
 * The software products and documentation are furnished by    *
 * ANSYS, Inc. or its subsidiaries under a software license    *
 * agreement that contains provisions concerning               *
 * non-disclosure, copying, length and nature of use,          *
 * compliance with exporting laws, warranties, disclaimers,    *
 * limitations of liability, and remedies, and other           *
 * provisions.  The software products and documentation may be *
 * used, disclosed, transferred, or copied only in accordance  *
 * with the terms and conditions of that software license      *
 * agreement.                                                  *
 *                                                             *
 * ANSYS, Inc. is a UL registered                              *
 * ISO 9001:2008 company.                                      *
 *                                                             *
 ***************************************************************
 *                                                             *
 * This product is subject to U.S. laws governing export and   *
 * re-export.                                                  *
 *                                                             *
 * For U.S. Government users, except as specifically granted   *
 * by the ANSYS, Inc. software license agreement, the use,     *
 * duplication, or disclosure by the United States Government  *
 * is subject to restrictions stated in the ANSYS, Inc.        *
 * software license agreement and FAR 12.212 (for non-DOD      *
 * licenses).                                                  *
 *                                                             *
 ***************************************************************

 Release 16.0
     
 Point Releases and Patches installed:   
     
 ANSYS, Inc. Products Release 16.0   
 ANSYS Mechanical Products Release 16.0  
 ANSYS Autodyn Release 16.0  
 ANSYS LS-DYNA Release 16.0  
 ANSYS AIM Release 16.0  
 ANSYS CFX (includes ANSYS CFD-Post) Release 16.0
 ANSYS Fluent (includes ANSYS CFD-Post) Release 16.0 
 ANSYS TurboGrid Release 16.0
 ANSYS Polyflow (includes ANSYS CFD-Post) Release 16.0   
 ANSYS ICEM CFD Release 16.0 
 ANSYS Aqwa Release 16.0 
 ANSYS Composite PrepPost Release 16.0   
 ANSYS Icepak (includes ANSYS CFD-Post) Release 16.0 
 Catia, Version 6 Release 16.0   
 ANSYS, Inc. License Manager Release 16.0


          *****  ANSYS COMMAND LINE ARGUMENTS  *****
  BATCH MODE REQUESTED (-b)    = NOLIST
  INPUT FILE COPY MODE (-c)    = COPY
  DISTRIBUTED MEMORY PARALLEL REQUESTED
       6 PARALLEL PROCESSES REQUESTED WITH SINGLE THREAD PER PROCESS
    TOTAL OF     6 CORES REQUESTED
  INPUT FILE NAME              = I:\Thesis Work\_ProjectScratch\ScrBD55\dummy.dat
  OUTPUT FILE NAME             = I:\Thesis Work\_ProjectScratch\ScrBD55\solve.out
  START-UP FILE MODE           = NOREAD
  STOP FILE MODE               = NOREAD

 RELEASE= Release 16.0         BUILD= 16.0      UP20141203   VERSION=WINDOWS x64 
 CURRENT JOBNAME=file0  02:34:03  FEB 20, 2021 CP=      0.906


 PARAMETER _DS_PROGRESS =     999.0000000    

 /INPUT FILE= ds.dat  LINE=       0



 *** NOTE ***                            CP =       2.734   TIME= 02:34:05
 The /CONFIG,NOELDB command is not valid in a Distributed ANSYS          
 solution.  Command is ignored.                                          

 *GET  _WALLSTRT  FROM  ACTI  ITEM=TIME WALL  VALUE=  2.56805556    

 TITLE= 
 experimental_2--Static Structural (B5)                                        


 SET PARAMETER DIMENSIONS ON  _WB_PROJECTSCRATCH_DIR
  TYPE=STRI  DIMENSIONS=      248        1        1

 PARAMETER _WB_PROJECTSCRATCH_DIR(1) = I:\Thesis Work\_ProjectScratch\ScrBD55\

 SET PARAMETER DIMENSIONS ON  _WB_SOLVERFILES_DIR
  TYPE=STRI  DIMENSIONS=      248        1        1

 PARAMETER _WB_SOLVERFILES_DIR(1) = I:\Thesis Work\experimental_2_files\dp0\SYS\MECH\

 SET PARAMETER DIMENSIONS ON  _WB_USERFILES_DIR
  TYPE=STRI  DIMENSIONS=      248        1        1

 PARAMETER _WB_USERFILES_DIR(1) = I:\Thesis Work\experimental_2_files\user_files\
 --- Data in consistent NMM units. See Solving Units in the help system for more

 MPA UNITS SPECIFIED FOR INTERNAL    
  LENGTH      = MILLIMETERS (mm)
  MASS        = TONNE (Mg)
  TIME        = SECONDS (sec)
  TEMPERATURE = CELSIUS (C)
  TOFFSET     = 273.0
  FORCE       = NEWTON (N)
  HEAT        = MILLIJOULES (mJ)

 INPUT  UNITS ARE ALSO SET TO MPA 

 *** ANSYS - ENGINEERING ANALYSIS SYSTEM  RELEASE Release 16.0     16.0     ***
 DISTRIBUTED ANSYS Multiphysics                                

 00000000  VERSION=WINDOWS x64   02:34:05  FEB 20, 2021 CP=      2.734

 experimental_2--Static Structural (B5)                                        



          ***** ANSYS ANALYSIS DEFINITION (PREP7) *****
 *********** Nodes for the whole assembly ***********
 *********** Elements for Body 1 "Solid" ***********
 *********** Send User Defined Coordinate System(s) ***********
 *********** Set Reference Temperature ***********
 *********** Send Materials ***********
 *********** Fixed Supports ***********
 *********** Define Rotational Velocity ***********


 ***** ROUTINE COMPLETED *****  CP =         3.609


 --- Number of total nodes = 79060
 --- Number of contact elements = 0
 --- Number of spring elements = 0
 --- Number of bearing elements = 0
 --- Number of solid elements = 50638
 --- Number of total elements = 50638

 *GET  _WALLBSOL  FROM  ACTI  ITEM=TIME WALL  VALUE=  2.56805556    
 ****************************************************************************
 *************************    SOLUTION       ********************************
 ****************************************************************************

 *****  ANSYS SOLUTION ROUTINE  *****


 PERFORM A STATIC ANALYSIS
  THIS WILL BE A NEW ANALYSIS

 USE PRECONDITIONED CONJUGATE GRADIENT SOLVER
  CONVERGENCE TOLERANCE = 1.00000E-08
  MAXIMUM ITERATION     = NumNode*DofPerNode*  1.0000    

 CONTACT INFORMATION PRINTOUT LEVEL       1

 DO NOT COMBINE ELEMENT MATRIX FILES (.emat) AFTER DISTRIBUTED PARALLEL SOLUTION

 DO NOT COMBINE ELEMENT SAVE DATA FILES (.esav) AFTER DISTRIBUTED PARALLEL SOLUTION

 NLDIAG: Nonlinear diagnostics CONT option is set to ON. 
         Writing frequency : each ITERATION.

 DO NOT SAVE ANY RESTART FILES AT ALL
 ****************************************************
 ******************* SOLVE FOR LS 1 ****************
 
CGOMGX IS SET ACCORDING TO TABLE PARAMETER = _LOADVARI25X
CGOMGY IS SET ACCORDING TO TABLE PARAMETER = _LOADVARI25Y
CGOMGZ IS SET ACCORDING TO TABLE PARAMETER = _LOADVARI25Z

 PRINTOUT RESUMED BY /GOP

 USE       1 SUBSTEPS INITIALLY THIS LOAD STEP FOR ALL  DEGREES OF FREEDOM
 FOR AUTOMATIC TIME STEPPING:
   USE      1 SUBSTEPS AS A MAXIMUM
   USE      1 SUBSTEPS AS A MINIMUM

 TIME=  1.0000    

 ERASE THE CURRENT DATABASE OUTPUT CONTROL TABLE.


 WRITE ALL  ITEMS TO THE DATABASE WITH A FREQUENCY OF NONE
   FOR ALL APPLICABLE ENTITIES

 WRITE NSOL ITEMS TO THE DATABASE WITH A FREQUENCY OF ALL 
   FOR ALL APPLICABLE ENTITIES

 WRITE RSOL ITEMS TO THE DATABASE WITH A FREQUENCY OF ALL 
   FOR ALL APPLICABLE ENTITIES

 WRITE STRS ITEMS TO THE DATABASE WITH A FREQUENCY OF ALL 
   FOR ALL APPLICABLE ENTITIES

 WRITE EPEL ITEMS TO THE DATABASE WITH A FREQUENCY OF ALL 
   FOR ALL APPLICABLE ENTITIES

 WRITE EPPL ITEMS TO THE DATABASE WITH A FREQUENCY OF ALL 
   FOR ALL APPLICABLE ENTITIES

 NONLINEAR STABILIZATION CONTROL:
 KEY=OFF 


 *GET  ANSINTER_  FROM  ACTI  ITEM=INT        VALUE=  0.00000000    

 *IF  ANSINTER_                         ( =   0.00000     )  NE  
      0                                 ( =   0.00000     )  THEN    

 *ENDIF

 *****  ANSYS SOLVE    COMMAND  *****

 *** WARNING ***                         CP =       3.969   TIME= 02:34:05
 Element shape checking is currently inactive.  Issue SHPP,ON or         
 SHPP,WARN to reactivate, if desired.                                    

 *** NOTE ***                            CP =       4.891   TIME= 02:34:05
 The model data was checked and warning messages were found.             
  Please review output or errors file ( I:\Thesis                        
 Work\_ProjectScratch\ScrBD55\file0.err ) for these warning messages.    

 *** SELECTION OF ELEMENT TECHNOLOGIES FOR APPLICABLE ELEMENTS ***
      --- GIVE SUGGESTIONS AND RESET THE KEY OPTIONS ---

 ELEMENT TYPE    1 IS SOLID187. IT IS NOT ASSOCIATED WITH FULLY INCOMPRESSIBLE
 HYPERELASTIC MATERIALS. NO SUGGESTION IS AVAILABLE AND NO RESETTING IS NEEDED.



 *** ANSYS - ENGINEERING ANALYSIS SYSTEM  RELEASE Release 16.0     16.0     ***
 DISTRIBUTED ANSYS Multiphysics                                

 00000000  VERSION=WINDOWS x64   02:34:05  FEB 20, 2021 CP=      4.891

 experimental_2--Static Structural (B5)                                        



                       S O L U T I O N   O P T I O N S

   PROBLEM DIMENSIONALITY. . . . . . . . . . . . .3-D                  
   DEGREES OF FREEDOM. . . . . . UX   UY   UZ  
   ANALYSIS TYPE . . . . . . . . . . . . . . . . .STATIC (STEADY-STATE)
   OFFSET TEMPERATURE FROM ABSOLUTE ZERO . . . . .  273.15    
   EQUATION SOLVER OPTION. . . . . . . . . . . . .PCG                
      TOLERANCE. . . . . . . . . . . . . . . . . . 1.00000E-08
   GLOBALLY ASSEMBLED MATRIX . . . . . . . . . . .SYMMETRIC  

 *** NOTE ***                            CP =       5.078   TIME= 02:34:05
 The conditions for direct assembly have been met.  No .emat or .erot    
 files will be produced.                                                 

  
  
     D I S T R I B U T E D   D O M A I N   D E C O M P O S E R
  
  ...Number of elements: 50638
  ...Number of nodes:    79060
  ...Decompose to 6 CPU domains
  ...Element load balance ratio =     1.000


                      L O A D   S T E P   O P T I O N S

   LOAD STEP NUMBER. . . . . . . . . . . . . . . .     1
   TIME AT END OF THE LOAD STEP. . . . . . . . . .  1.0000    
   NUMBER OF SUBSTEPS. . . . . . . . . . . . . . .     1
   STEP CHANGE BOUNDARY CONDITIONS . . . . . . . .    NO
   INERTIA LOADS                        X           Y           Z 
      CGLOC. . . . . . . . . . . .  0.0000      0.0000      66.000    
      CGOMGA . . . . . . . . . . ._LOADVARI25 _LOADVARI25 _LOADVARI25 
   PRINT OUTPUT CONTROLS . . . . . . . . . . . . .NO PRINTOUT
   DATABASE OUTPUT CONTROLS
      ITEM     FREQUENCY   COMPONENT
       ALL       NONE               
      NSOL        ALL               
      RSOL        ALL               
      STRS        ALL               
      EPEL        ALL               
      EPPL        ALL               


 SOLUTION MONITORING INFO IS WRITTEN TO FILE= file.mntr                                                                                                                                                                                                                                                           


 *** NOTE ***                            CP =       7.453   TIME= 02:34:06
 The PCG solver has automatically set the level of difficulty for this   
 model to 1.                                                             


                         ***********  PRECISE MASS SUMMARY  ***********

   TOTAL RIGID BODY MASS MATRIX ABOUT ORIGIN
               Translational mass               |   Coupled translational/rotational mass
        0.10259E-01    0.0000        0.0000     |     0.0000       0.19464      -0.20189E-09
         0.0000       0.10259E-01    0.0000     |   -0.19464        0.0000      -0.28587E-09
         0.0000        0.0000       0.10259E-01 |    0.20189E-09   0.28587E-09    0.0000    
     ------------------------------------------ | ------------------------------------------
                                                |         Rotational mass (inertia)
                                                |     51.753       0.12538E-07  -0.21692E-08
                                                |    0.12538E-07    51.753      -0.68976E-08
                                                |   -0.21692E-08  -0.68976E-08    90.994    

   TOTAL MASS = 0.10259E-01
     The mass principal axes coincide with the global Cartesian axes

   CENTER OF MASS (X,Y,Z)=  -0.27865E-07   0.19680E-07    18.973    

   TOTAL INERTIA ABOUT CENTER OF MASS
         48.060       0.12538E-07  -0.75930E-08
        0.12538E-07    48.060      -0.30671E-08
       -0.75930E-08  -0.30671E-08    90.994    
     The inertia principal axes coincide with the global Cartesian axes


  *** MASS SUMMARY BY ELEMENT TYPE ***

  TYPE      MASS
     1  0.102590E-01

 Range of element maximum matrix coefficients in global coordinates
 Maximum = 4066603.8 at element 41747.                                   
 Minimum = 330476.448 at element 29306.                                  

   *** ELEMENT MATRIX FORMULATION TIMES
  TYPE    NUMBER   ENAME      TOTAL CP  AVE CP

     1     50638  SOLID187      1.875   0.000037
 Time at end of element matrix formulation CP = 7.8125.                  
 curEqn=    834  totEqn=    834 Job CP sec=      5.724
      Factor Done= 108% Factor Wall sec=      0.030 rate=     627.2 Mflops
 Iteration=    10 Ratio=  7.854046E-02 Limit=  1.000000E-08 Wall=     0.1
 Iteration=    35 Ratio=  6.937312E-04 Limit=  1.000000E-08 Wall=     0.2
 Iteration=    70 Ratio=  1.817502E-06 Limit=  1.000000E-08 Wall=     0.4

 DISTRIBUTED PCG SOLVER SOLUTION CONVERGED

 DISTRIBUTED PCG SOLVER SOLUTION STATISTICS

   NUMBER OF DOMAINS   =         562
   NUMBER OF ITERATIONS=          99
   NUMBER OF EQUATIONS =      237180
   LEVEL OF CONVERGENCE=           1
   CALCULATED NORM     = 0.89442E-08
   SPECIFIED TOLERANCE = 0.10000E-07
   TOTAL CPU TIME (sec)=        1.10
   TOTAL WALL TIME(sec)=        1.10
   TOTAL MEMORY (GB)   =        0.03


   *** ELEMENT RESULT CALCULATION TIMES
  TYPE    NUMBER   ENAME      TOTAL CP  AVE CP

     1     50638  SOLID187      1.359   0.000027

   *** NODAL LOAD CALCULATION TIMES
  TYPE    NUMBER   ENAME      TOTAL CP  AVE CP

     1     50638  SOLID187      0.062   0.000001
 *** LOAD STEP     1   SUBSTEP     1  COMPLETED.    CUM ITER =      1
 *** TIME =   1.00000         TIME INC =   1.00000      NEW TRIANG MATRIX


 *** ANSYS BINARY FILE STATISTICS
  BUFFER SIZE USED= 16384
        7.250 MB WRITTEN ON RESULTS FILE: file0.rst
 *************** Write FE CONNECTORS *********

 WRITE OUT CONSTRAINT EQUATIONS TO FILE= file.ce                                                                                                                                                                                                                                                             
 ****************************************************
 *************** FINISHED SOLVE FOR LS 1 *************

 PARAMETER _DS_PROGRESS  DELETED.

 *GET  _WALLASOL  FROM  ACTI  ITEM=TIME WALL  VALUE=  2.56888889    

 PRINTOUT RESUMED BY /GOP

 *GET  _PCGITER  FROM  ACTI  ITEM=SOLU CGIT  VALUE=  99.0000000    

 FINISH SOLUTION PROCESSING


 ***** ROUTINE COMPLETED *****  CP =         9.375



 *** ANSYS - ENGINEERING ANALYSIS SYSTEM  RELEASE Release 16.0     16.0     ***
 DISTRIBUTED ANSYS Multiphysics                                

 00000000  VERSION=WINDOWS x64   02:34:08  FEB 20, 2021 CP=      9.375

 experimental_2--Static Structural (B5)                                        



          ***** ANSYS RESULTS INTERPRETATION (POST1) *****

 *** NOTE ***                            CP =       9.375   TIME= 02:34:08
 Reading results into the database (SET command) will update the current 
 displacement and force boundary conditions in the database with the     
 values from the results file for that load set.  Note that any          
 subsequent solutions will use these values unless action is taken to    
 either SAVE the current values or not overwrite them (/EXIT,NOSAVE).    

 Set Encoding of XML File to:ISO-8859-1

 Set Output of XML File to:
     PARM,     ,     ,     ,     ,     ,     ,     ,     ,     ,     ,     ,
         ,     ,     ,     ,     ,     ,     ,

 DATABASE WRITTEN ON FILE  parm.xml                                                                                                                                                                                                                                                            

 EXIT THE ANSYS POST1 DATABASE PROCESSOR


 ***** ROUTINE COMPLETED *****  CP =         9.375



 PRINTOUT RESUMED BY /GOP

 *GET  _WALLDONE  FROM  ACTI  ITEM=TIME WALL  VALUE=  2.56888889    

 PARAMETER _PREPTIME =     0.000000000    

 PARAMETER _SOLVTIME =     3.000000000    

 PARAMETER _POSTTIME =     0.000000000    

 PARAMETER _TOTALTIM =     3.000000000    

 EXIT ANSYS WITHOUT SAVING DATABASE


 NUMBER OF WARNING MESSAGES ENCOUNTERED=          1
 NUMBER OF ERROR   MESSAGES ENCOUNTERED=          0

+--------- D I S T R I B U T E D   A N S Y S   S T A T I S T I C S ------------+

Release: Release 16.0       Build: 16.0       Update: UP20141203   Platform: WINDOWS x64 
Date Run: 02/20/2021   Time: 02:34
Windows Process ID:        13844

Processor Model: Intel(R) Core(TM) i5-9600K CPU @ 3.70GHz

Compiler: Intel(R) FORTRAN Compiler Version 14.0.0  (Build: 20140422)
          Intel(R) C/C++ Compiler Version 14.0.0  (Build: 20140422)
          Intel(R) Math Kernel Library Version 11.1.3 Product Build 20140917

Total number of cores available         :    6
Number of physical cores available      :    6
Number of processes requested           :    6
Number of threads per process requested :    1
Total number of cores requested         :    6 (Distributed Memory Parallel)               
MPI Type: NATIVE  

GPU Acceleration: Not Requested

Job Name: file0
Input File: dummy.dat

  Core                Machine Name   Working Directory
  ----------------------------------------------------
     0             DESKTOP-N3S95A7   I:\Thesis Work\_ProjectScratch\ScrBD55
     1             DESKTOP-N3S95A7   I:\Thesis Work\_ProjectScratch\ScrBD55
     2             DESKTOP-N3S95A7   I:\Thesis Work\_ProjectScratch\ScrBD55
     3             DESKTOP-N3S95A7   I:\Thesis Work\_ProjectScratch\ScrBD55
     4             DESKTOP-N3S95A7   I:\Thesis Work\_ProjectScratch\ScrBD55
     5             DESKTOP-N3S95A7   I:\Thesis Work\_ProjectScratch\ScrBD55
 
Latency time from master to core    1 =    0.710 microseconds
Latency time from master to core    2 =    0.211 microseconds
Latency time from master to core    3 =    0.213 microseconds
Latency time from master to core    4 =    0.208 microseconds
Latency time from master to core    5 =    0.213 microseconds
 
Communication speed from master to core    1 =  6709.81 MB/sec
Communication speed from master to core    2 =  8343.58 MB/sec
Communication speed from master to core    3 =  7488.79 MB/sec
Communication speed from master to core    4 =  7868.88 MB/sec
Communication speed from master to core    5 =  8982.07 MB/sec

Total CPU time for main thread                    :        7.0 seconds
Total CPU time summed for all threads             :       10.4 seconds

Elapsed time spent pre-processing model (/PREP7)  :        0.2 seconds
Elapsed time spent solution - preprocessing       :        0.6 seconds
Elapsed time spent computing solution             :        2.2 seconds
Elapsed time spent solution - postprocessing      :        0.2 seconds
Elapsed time spent post-processing model (/POST1) :        0.0 seconds

Equation solver computational rate                :    31151.1 Mflops

Maximum total memory used                         :      469.0 MB
Maximum total memory allocated                    :     7232.0 MB
Maximum total memory available                    :         16 GB

+------ E N D   D I S T R I B U T E D   A N S Y S   S T A T I S T I C S -------+


 *---------------------------------------------------------------------------*
 |                                                                           |
 |                       DISTRIBUTED ANSYS RUN COMPLETED                     |
 |                                                                           |
 |---------------------------------------------------------------------------|
 |                                                                           |
 | Ansys Release 16.0          Build 16.0         UP20141203     WINDOWS x64 |
 |                                                                           |
 |---------------------------------------------------------------------------|
 |                                                                           |
 | Database Requested(-db)  1024 MB    Scratch Memory Requested      1024 MB |
 | Maximum Database Used      57 MB    Maximum Scratch Memory Used    122 MB |
 |                                                                           |
 |---------------------------------------------------------------------------|
 |                                                                           |
 |        CP Time      (sec) =         10.359       Time  =  02:34:09        |
 |        Elapsed Time (sec) =          9.000       Date  =  02/20/2021      |
 |                                                                           |
 *---------------------------------------------------------------------------*
